168
jam764e
O      12.964576    0.915231    9.357766
H      13.404749    0.209010    9.471538
O      13.488239    1.216413   11.487835
O      11.441092    2.722975    8.110485
O       9.747859    1.417634    8.813134
C      12.178467    2.888495   10.450190
C      11.445101    3.381811    9.352499
C      10.808851    4.576155    9.392530
H      10.402425    4.944844    8.616140
C      10.771809    5.257710   10.628223
H      10.239596    6.037928   10.701964
C      11.464196    4.835795   11.713273
H      11.491075    5.364162   12.504411
C      12.132595    3.628469   11.646906
H      12.568880    3.292884   12.421189
C      12.927726    1.583804   10.470206
C      10.530224    1.674678    7.978805
C      10.722005    1.064524    6.608271
H      10.156100    0.265482    6.525048
H      11.660698    0.807480    6.491338
H      10.472222    1.712975    5.919317
O      12.964576    7.406231    9.357766
H      13.404749    6.700010    9.471538
O      13.488239    7.707413   11.487835
O      11.441092    9.213974    8.110485
O       9.747859    7.908634    8.813134
C      12.178467    9.379495   10.450190
C      11.445101    9.872811    9.352499
C      10.808851   11.067155    9.392530
H      10.402425   11.435844    8.616140
C      10.771809   11.748710   10.628223
H      10.239596   12.528928   10.701964
C      11.464196   11.326795   11.713273
H      11.491075   11.855162   12.504411
C      12.132595   10.119469   11.646906
H      12.568880    9.783884   12.421189
C      12.927726    8.074804   10.470206
C      10.530224    8.165678    7.978805
C      10.722005    7.555524    6.608271
H      10.156100    6.756482    6.525048
H      11.660698    7.298480    6.491338
H      10.472222    8.203975    5.919317
O      17.093102    4.160731    6.443933
H      16.652929    3.454510    6.330161
O      16.569439    4.461913    4.313864
O      18.616586    5.968475    7.691214
O      20.309818    4.663134    6.988565
C      17.879211    6.133995    5.351509
C      18.612577    6.627311    6.449200
C      19.248827    7.821655    6.409169
H      19.655253    8.190344    7.185559
C      19.285869    8.503210    5.173476
H      19.818082    9.283428    5.099735
C      18.593482    8.081295    4.088426
H      18.566603    8.609662    3.297288
C      17.925082    6.873969    4.154793
H      17.488798    6.538384    3.380510
C      17.129951    4.829304    5.331493
C      19.527453    4.920178    7.822895
C      19.335673    4.310024    9.193429
H      19.901578    3.510982    9.276651
H      18.396980    4.052980    9.310361
H      19.585456    4.958475    9.882383
O       7.073876    5.575769    1.176700
H       6.633703    6.281990    1.062928
O       6.550213    5.274587   -0.953369
O       8.597360    3.768025    2.423981
O      10.290593    5.073366    1.721332
C       7.859985    3.602505    0.084276
C       8.593351    3.109189    1.181967
C       9.229601    1.914845    1.141936
H       9.636027    1.546156    1.918326
C       9.266643    1.233290   -0.093757
H       9.798856    0.453072   -0.167498
C       8.574256    1.655205   -1.178807
H       8.547377    1.126838   -1.969945
C       7.905856    2.862531   -1.112440
H       7.469572    3.198116   -1.886723
C       7.110726    4.907196    0.064260
C       9.508227    4.816322    2.555661
C       9.316447    5.426476    3.926196
H       9.882352    6.225518    4.009418
H       8.377754    5.683520    4.043128
H       9.566230    4.778025    4.615150
O      15.017328    5.575769   11.711166
H      14.577155    6.281990   11.597394
O      14.493664    5.274587    9.581097
O      16.540812    3.768026   12.958447
O      18.234044    5.073366   12.255798
C      15.803436    3.602505   10.618742
C      16.536803    3.109189   11.716433
C      17.173052    1.914845   11.676402
H      17.579479    1.546156   12.452792
C      17.210095    1.233290   10.440709
H      17.742308    0.453072   10.366968
C      16.517708    1.655205    9.355659
H      16.490829    1.126838    8.564521
C      15.849308    2.862531    9.422027
H      15.413024    3.198116    8.647743
C      15.054177    4.907196   10.598726
C      17.451679    4.816322   13.090128
C      17.259899    5.426476   14.460662
H      17.825804    6.225518   14.543884
H      16.321206    5.683520   14.577594
H      17.509682    4.778025   15.149616
O      15.040350    2.330269    4.090533
H      15.480523    3.036490    4.204305
O      15.564013    2.029087    6.220602
O      13.516866    0.522526    2.843252
O      11.823633    1.827866    3.545901
C      14.254241    0.357005    5.182957
C      13.520875   -0.136311    4.085266
C      12.884625   -1.330655    4.125297
H      12.478199   -1.699344    3.348907
C      12.847583   -2.012210    5.360990
H      12.315370   -2.792428    5.434731
C      13.539970   -1.590295    6.446040
H      13.566849   -2.118662    7.237178
C      14.208369   -0.382969    6.379673
H      14.644654   -0.047384    7.153956
C      15.003500    1.661696    5.202973
C      12.605998    1.570822    2.711572
C      12.797779    2.180976    1.341038
H      12.231874    2.980018    1.257815
H      13.736472    2.438020    1.224105
H      12.547996    1.532525    0.652083
O      15.040350    8.821269    4.090533
H      15.480523    9.527490    4.204305
O      15.564013    8.520087    6.220602
O      13.516866    7.013526    2.843252
O      11.823633    8.318866    3.545901
C      14.254241    6.848005    5.182957
C      13.520875    6.354689    4.085266
C      12.884625    5.160345    4.125297
H      12.478199    4.791656    3.348907
C      12.847583    4.478790    5.360990
H      12.315370    3.698572    5.434731
C      13.539970    4.900705    6.446040
H      13.566849    4.372338    7.237178
C      14.208369    6.108031    6.379673
H      14.644654    6.443616    7.153956
C      15.003500    8.152696    5.202973
C      12.605998    8.061822    2.711572
C      12.797779    8.671976    1.341038
H      12.231874    9.471018    1.257815
H      13.736472    8.929020    1.224105
H      12.547996    8.023525    0.652083
O      10.888802    8.821269   14.624999
H      11.328974    9.527490   14.738772
O      11.412465    8.520087   16.755068
O       9.365318    7.013526   13.377719
O       7.672085    8.318866   14.080367
C      10.102693    6.848005   15.717423
C       9.369326    6.354689   14.619732
C       8.733077    5.160345   14.659763
H       8.326651    4.791656   13.883373
C       8.696034    4.478790   15.895456
H       8.163822    3.698572   15.969197
C       9.388422    4.900705   16.980506
H       9.415301    4.372338   17.771644
C      10.056821    6.108031   16.914139
H      10.493106    6.443616   17.688422
C      10.851952    8.152696   15.737439
C       8.454450    8.061822   13.246038
C       8.646231    8.671976   11.875504
H       8.080325    9.471018   11.792281
H       9.584924    8.929020   11.758571
H       8.396447    8.023525   11.186550
