48
benz2_0.91GPa
C      -3.797268   -0.137377    6.354368
H      -4.549180   -0.217606    5.813434
C      -2.811730   -1.093525    6.302782
H      -2.890908   -1.818329    5.726741
C      -3.677976    0.961643    7.215564
H      -4.347777    1.607317    7.239924
C      -1.585942    0.137378    7.975022
H      -0.834030    0.217606    8.515957
C      -2.571480    1.093525    8.026608
H      -2.492302    1.818329    8.602649
C      -1.705234   -0.961642    7.113826
H      -1.035433   -1.607317    7.089466
C      -3.797268    5.357723    6.354368
H      -4.549180    5.277494    5.813434
C      -2.811730    4.401575    6.302782
H      -2.890908    3.676771    5.726741
C      -3.677976    6.456743    7.215564
H      -4.347777    7.102417    7.239924
C      -1.585942    5.632478    7.975022
H      -0.834030    5.712706    8.515957
C      -2.571480    6.588625    8.026608
H      -2.492302    7.313429    8.602649
C      -1.705234    4.533458    7.113826
H      -1.035433    3.887783    7.089466
C       1.717332   -0.137377    6.354368
H       0.965420   -0.217606    5.813434
C       2.702870   -1.093525    6.302782
H       2.623692   -1.818329    5.726741
C       1.836624    0.961643    7.215564
H       1.166823    1.607317    7.239924
C       3.928658    0.137378    7.975022
H       4.680570    0.217606    8.515957
C       2.943120    1.093525    8.026608
H       3.022298    1.818329    8.602649
C       3.809366   -0.961642    7.113826
H       4.479167   -1.607317    7.089466
C      -0.240140    2.610173    4.392675
H       0.511773    2.529944    4.933609
C      -1.225677    1.654025    4.444260
H      -1.146500    0.929221    5.020302
C      -0.359431    3.709193    3.531478
H       0.310369    4.354867    3.507118
C      -2.451465    2.884928    2.772021
H      -3.203378    2.965156    2.231086
C      -1.465928    3.841075    2.720435
H      -1.545105    4.565879    2.144393
C      -2.332174    1.785908    3.633217
H      -3.001974    1.140233    3.657577
