28
epsilon
C       4.002139   -0.374517    5.660349
N       5.472118   -0.971055    3.869701
N       4.355137   -0.270036    4.393629
H       3.896467    0.236618    3.871798
O       4.618544   -1.016766    6.517060
H       6.169971   -0.399485    3.891599
H       5.706048   -1.555686    4.460022
C       2.715757    0.374517    5.987658
N       1.245778    0.971055    7.778307
N       2.362760    0.270036    7.254379
H       2.821429   -0.236618    7.776210
O       2.099352    1.016766    5.130947
H       0.547926    0.399485    7.756408
H       1.011848    1.555686    7.187986
C       4.721009    1.546083    0.163655
N       3.251030    0.949545    1.954303
N       4.368012    1.650564    1.430375
H       4.826681    2.157218    1.952206
O       4.104604    0.903834   -0.693056
H       2.553177    1.521115    1.932405
H       3.017100    0.364914    1.363982
C       6.007391    2.295117   -0.163655
N       7.477370    2.891655   -1.954303
N       6.360388    2.190636   -1.430375
H       5.901719    1.683982   -1.952206
O       6.623796    2.937366    0.693056
H       8.175223    2.320085   -1.932405
H       7.711300    3.476286   -1.363982
