112
alpha
C      -1.691196   -0.466639    8.440415
N      -2.669185   -0.474633    6.270218
N      -2.184962    0.197246    7.414329
H      -2.213005    1.056258    7.441807
O      -1.552831   -1.690696    8.520059
H      -1.971976   -0.655891    5.717398
H      -3.123836    0.150308    5.828215
C      -1.258867    0.466639    9.578489
N      -0.280878    0.474633   11.748686
N      -0.765101   -0.197246   10.604576
H      -0.737058   -1.056258   10.577097
O      -1.397232    1.690696    9.498846
H      -0.978087    0.655891   12.301506
H       0.173773   -0.150308   12.190690
C      -0.216164    6.365561   -0.569037
N      -1.194154    6.357567   -2.739234
N      -0.709931    7.029446   -1.595123
H      -0.737973    7.888458   -1.567645
O      -0.077800    5.141504   -0.489393
H      -0.496944    6.176309   -3.292054
H      -1.648804    6.982508   -3.181238
C       0.216164    7.298839    0.569037
N       1.194154    7.306833    2.739234
N       0.709931    6.634954    1.595123
H       0.737973    5.775942    1.567645
O       0.077800    8.522896    0.489393
H       0.496944    7.488091    3.292054
H       1.648804    6.681892    3.181238
C      -1.691196    6.365561    8.440415
N      -2.669185    6.357567    6.270218
N      -2.184962    7.029446    7.414329
H      -2.213005    7.888458    7.441807
O      -1.552831    5.141504    8.520059
H      -1.971976    6.176309    5.717398
H      -3.123836    6.982508    5.828215
C      -1.258867    7.298839    9.578489
N      -0.280878    7.306833   11.748686
N      -0.765101    6.634954   10.604576
H      -0.737058    5.775942   10.577097
O      -1.397232    8.522896    9.498846
H      -0.978087    7.488091   12.301506
H       0.173773    6.681892   12.190690
C       3.405936   -0.466639   -0.569037
N       2.427946   -0.474633   -2.739234
N       2.912169    0.197246   -1.595123
H       2.884127    1.056258   -1.567645
O       3.544300   -1.690696   -0.489393
H       3.125156   -0.655891   -3.292054
H       1.973296    0.150308   -3.181238
C       3.838264    0.466639    0.569037
N       4.816254    0.474633    2.739234
N       4.332031   -0.197246    1.595123
H       4.360073   -1.056258    1.567645
O       3.699900    1.690696    0.489393
H       4.119044    0.655891    3.292054
H       5.270904   -0.150308    3.181238
C       1.930904   -0.466639    8.440415
N       0.952915   -0.474633    6.270218
N       1.437138    0.197246    7.414329
H       1.409095    1.056258    7.441807
O       2.069269   -1.690696    8.520059
H       1.650124   -0.655891    5.717398
H       0.498264    0.150308    5.828215
C       2.363233    0.466639    9.578489
N       3.341222    0.474633   11.748686
N       2.856999   -0.197246   10.604576
H       2.885042   -1.056258   10.577097
O       2.224868    1.690696    9.498846
H       2.644013    0.655891   12.301506
H       3.795873   -0.150308   12.190690
C       3.405936    6.365561   -0.569037
N       2.427946    6.357567   -2.739234
N       2.912169    7.029446   -1.595123
H       2.884127    7.888458   -1.567645
O       3.544300    5.141504   -0.489393
H       3.125156    6.176309   -3.292054
H       1.973296    6.982508   -3.181238
C       3.838264    7.298839    0.569037
N       4.816254    7.306833    2.739234
N       4.332031    6.634954    1.595123
H       4.360073    5.775942    1.567645
O       3.699900    8.522896    0.489393
H       4.119044    7.488091    3.292054
H       5.270904    6.681892    3.181238
C       1.930904    6.365561    8.440415
N       0.952915    6.357567    6.270218
N       1.437138    7.029446    7.414329
H       1.409095    7.888458    7.441807
O       2.069269    5.141504    8.520059
H       1.650124    6.176309    5.717398
H       0.498264    6.982508    5.828215
C       2.363233    7.298839    9.578489
N       3.341222    7.306833   11.748686
N       2.856999    6.634954   10.604576
H       2.885042    5.775942   10.577097
O       2.224868    8.522896    9.498846
H       2.644013    7.488091   12.301506
H       3.795873    6.681892   12.190690
C       3.100749    2.949461    5.073763
N       4.078738    2.941467    7.243960
N       3.594515    3.613346    6.099850
H       3.622557    4.472358    6.072371
O       2.962384    1.725404    4.994119
H       3.381528    2.760209    7.796780
H       4.533389    3.566408    7.685964
C       2.668420    3.882739    3.935689
N       1.690430    3.890733    1.765492
N       2.174654    3.218854    2.909603
H       2.146611    2.359842    2.937081
O       2.806784    5.106796    4.015333
H       2.387640    4.071991    1.212672
H       1.235780    3.265792    1.323489
