224
epsilon
C      -1.362061   -0.374517    5.660349
N       0.107918   -0.971055    3.869701
N      -1.009063   -0.270036    4.393629
H      -1.467733    0.236618    3.871798
O      -0.745656   -1.016766    6.517060
H       0.805771   -0.399485    3.891599
H       0.341848   -1.555686    4.460022
C      -2.648443    0.374517    5.987658
N      -4.118422    0.971055    7.778307
N      -3.001440    0.270036    7.254379
H      -2.542771   -0.236618    7.776210
O      -3.264848    1.016766    5.130947
H      -4.816274    0.399485    7.756408
H      -4.352352    1.555686    7.187986
C      -1.362061    3.466683    5.660349
N       0.107918    2.870145    3.869701
N      -1.009063    3.571164    4.393629
H      -1.467733    4.077818    3.871798
O      -0.745656    2.824434    6.517060
H       0.805771    3.441715    3.891599
H       0.341848    2.285514    4.460022
C      -2.648443    4.215717    5.987658
N      -4.118422    4.812255    7.778307
N      -3.001440    4.111236    7.254379
H      -2.542771    3.604582    7.776210
O      -3.264848    4.857966    5.130947
H      -4.816274    4.240685    7.756408
H      -4.352352    5.396886    7.187986
C      -1.362061    7.307883    5.660349
N       0.107918    6.711345    3.869701
N      -1.009063    7.412364    4.393629
H      -1.467733    7.919018    3.871798
O      -0.745656    6.665634    6.517060
H       0.805771    7.282915    3.891599
H       0.341848    6.126714    4.460022
C      -2.648443    8.056917    5.987658
N      -4.118422    8.653455    7.778307
N      -3.001440    7.952436    7.254379
H      -2.542771    7.445782    7.776210
O      -3.264848    8.699166    5.130947
H      -4.816274    8.081885    7.756408
H      -4.352352    9.238086    7.187986
C       4.002139   -0.374517    5.660349
N       5.472118   -0.971055    3.869701
N       4.355137   -0.270036    4.393629
H       3.896467    0.236618    3.871798
O       4.618544   -1.016766    6.517060
H       6.169971   -0.399485    3.891599
H       5.706048   -1.555686    4.460022
C       2.715757    0.374517    5.987658
N       1.245778    0.971055    7.778307
N       2.362760    0.270036    7.254379
H       2.821429   -0.236618    7.776210
O       2.099352    1.016766    5.130947
H       0.547926    0.399485    7.756408
H       1.011848    1.555686    7.187986
C       4.002139    3.466683    5.660349
N       5.472118    2.870145    3.869701
N       4.355137    3.571164    4.393629
H       3.896467    4.077818    3.871798
O       4.618544    2.824434    6.517060
H       6.169971    3.441715    3.891599
H       5.706048    2.285514    4.460022
C       2.715757    4.215717    5.987658
N       1.245778    4.812255    7.778307
N       2.362760    4.111236    7.254379
H       2.821429    3.604582    7.776210
O       2.099352    4.857966    5.130947
H       0.547926    4.240685    7.756408
H       1.011848    5.396886    7.187986
C       4.002139    7.307883    5.660349
N       5.472118    6.711345    3.869701
N       4.355137    7.412364    4.393629
H       3.896467    7.919018    3.871798
O       4.618544    6.665634    6.517060
H       6.169971    7.282915    3.891599
H       5.706048    6.126714    4.460022
C       2.715757    8.056917    5.987658
N       1.245778    8.653455    7.778307
N       2.362760    7.952436    7.254379
H       2.821429    7.445782    7.776210
O       2.099352    8.699166    5.130947
H       0.547926    8.081885    7.756408
H       1.011848    9.238086    7.187986
C      -0.643191    1.546083    0.163655
N      -2.113170    0.949545    1.954303
N      -0.996188    1.650564    1.430375
H      -0.537519    2.157218    1.952206
O      -1.259596    0.903834   -0.693056
H      -2.811023    1.521115    1.932405
H      -2.347100    0.364914    1.363982
C       0.643191    2.295117   -0.163655
N       2.113170    2.891655   -1.954303
N       0.996188    2.190636   -1.430375
H       0.537519    1.683982   -1.952206
O       1.259596    2.937366    0.693056
H       2.811023    2.320085   -1.932405
H       2.347100    3.476286   -1.363982
C      -4.653694    1.546083   11.811662
N      -6.123673    0.949545   13.602311
N      -5.006692    1.650564   13.078383
H      -4.548022    2.157218   13.600214
O      -5.270099    0.903834   10.954951
H      -6.821526    1.521115   13.580412
H      -6.357603    0.364914   13.011990
C      -3.367312    2.295117   11.484353
N      -1.897333    2.891655    9.693705
N      -3.014315    2.190636   10.217633
H      -3.472984    1.683982    9.695802
O      -2.750907    2.937366   12.341064
H      -1.199481    2.320085    9.715603
H      -1.663403    3.476286   10.284026
C      -4.653694    5.387283   11.811662
N      -6.123673    4.790745   13.602311
N      -5.006692    5.491764   13.078383
H      -4.548022    5.998418   13.600214
O      -5.270099    4.745034   10.954951
H      -6.821526    5.362315   13.580412
H      -6.357603    4.206114   13.011990
C      -3.367312    6.136317   11.484353
N      -1.897333    6.732855    9.693705
N      -3.014315    6.031836   10.217633
H      -3.472984    5.525182    9.695802
O      -2.750907    6.778566   12.341064
H      -1.199481    6.161285    9.715603
H      -1.663403    7.317486   10.284026
C      -0.643191    9.228483    0.163655
N      -2.113170    8.631945    1.954303
N      -0.996188    9.332964    1.430375
H      -0.537519    9.839618    1.952206
O      -1.259596    8.586234   -0.693056
H      -2.811023    9.203515    1.932405
H      -2.347100    8.047314    1.363982
C       0.643191    9.977517   -0.163655
N       2.113170   10.574055   -1.954303
N       0.996188    9.873036   -1.430375
H       0.537519    9.366382   -1.952206
O       1.259596   10.619766    0.693056
H       2.811023   10.002485   -1.932405
H       2.347100   11.158686   -1.363982
C      -4.653694    9.228483   11.811662
N      -6.123673    8.631945   13.602311
N      -5.006692    9.332964   13.078383
H      -4.548022    9.839618   13.600214
O      -5.270099    8.586234   10.954951
H      -6.821526    9.203515   13.580412
H      -6.357603    8.047314   13.011990
C      -3.367312    9.977517   11.484353
N      -1.897333   10.574055    9.693705
N      -3.014315    9.873036   10.217633
H      -3.472984    9.366382    9.695802
O      -2.750907   10.619766   12.341064
H      -1.199481   10.002485    9.715603
H      -1.663403   11.158686   10.284026
C       4.721009    1.546083    0.163655
N       3.251030    0.949545    1.954303
N       4.368012    1.650564    1.430375
H       4.826681    2.157218    1.952206
O       4.104604    0.903834   -0.693056
H       2.553177    1.521115    1.932405
H       3.017100    0.364914    1.363982
C       6.007391    2.295117   -0.163655
N       7.477370    2.891655   -1.954303
N       6.360388    2.190636   -1.430375
H       5.901719    1.683982   -1.952206
O       6.623796    2.937366    0.693056
H       8.175223    2.320085   -1.932405
H       7.711300    3.476286   -1.363982
C       4.721009    5.387283    0.163655
N       3.251030    4.790745    1.954303
N       4.368012    5.491764    1.430375
H       4.826681    5.998418    1.952206
O       4.104604    4.745034   -0.693056
H       2.553177    5.362315    1.932405
H       3.017100    4.206114    1.363982
C       6.007391    6.136317   -0.163655
N       7.477370    6.732855   -1.954303
N       6.360388    6.031836   -1.430375
H       5.901719    5.525182   -1.952206
O       6.623796    6.778566    0.693056
H       8.175223    6.161285   -1.932405
H       7.711300    7.317486   -1.363982
C       0.710506    5.387283   11.811662
N      -0.759473    4.790745   13.602311
N       0.357508    5.491764   13.078383
H       0.816178    5.998418   13.600214
O       0.094101    4.745034   10.954951
H      -1.457326    5.362315   13.580412
H      -0.993403    4.206114   13.011990
C       1.996888    6.136317   11.484353
N       3.466867    6.732855    9.693705
N       2.349885    6.031836   10.217633
H       1.891216    5.525182    9.695802
O       2.613293    6.778566   12.341064
H       4.164719    6.161285    9.715603
H       3.700797    7.317486   10.284026
C       4.721009    9.228483    0.163655
N       3.251030    8.631945    1.954303
N       4.368012    9.332964    1.430375
H       4.826681    9.839618    1.952206
O       4.104604    8.586234   -0.693056
H       2.553177    9.203515    1.932405
H       3.017100    8.047314    1.363982
C       6.007391    9.977517   -0.163655
N       7.477370   10.574055   -1.954303
N       6.360388    9.873036   -1.430375
H       5.901719    9.366382   -1.952206
O       6.623796   10.619766    0.693056
H       8.175223   10.002485   -1.932405
H       7.711300   11.158686   -1.363982
C       0.710506    9.228483   11.811662
N      -0.759473    8.631945   13.602311
N       0.357508    9.332964   13.078383
H       0.816178    9.839618   13.600214
O       0.094101    8.586234   10.954951
H      -1.457326    9.203515   13.580412
H      -0.993403    8.047314   13.011990
C       1.996888    9.977517   11.484353
N       3.466867   10.574055    9.693705
N       2.349885    9.873036   10.217633
H       1.891216    9.366382    9.695802
O       2.613293   10.619766   12.341064
H       4.164719   10.002485    9.715603
H       3.700797   11.158686   10.284026
