28
gamma
C       3.267001    5.029183    2.188005
C       2.964235    3.542591    2.279787
N       2.205777    7.179644    2.017278
N       2.183478    5.773872    2.170034
H       1.420849    5.386053    2.255398
N       4.037969    2.769593    2.319581
H       4.815001    3.135997    2.283638
N       3.951911    1.359861    2.419707
O       4.427029    5.463793    2.132808
O       1.807324    3.114729    2.314446
H       2.414980    7.568636    2.791969
H       2.905647    7.392622    1.437704
H       3.226103    1.129428    1.957588
H       3.693262    1.217436    3.305435
C       1.827439    2.304767    5.397166
C       1.524673    3.791359    5.488948
N       0.766216    0.154306    5.226438
N       0.743916    1.560078    5.379194
H      -0.018713    1.947897    5.464558
N       2.598407    4.564357    5.528741
H       3.375439    4.197953    5.492799
N       2.512349    5.974089    5.628867
O       2.987468    1.870157    5.341968
O       0.367762    4.219221    5.523607
H       0.975419   -0.234686    6.001130
H       1.466085   -0.058672    4.646864
H       1.786542    6.204522    5.166748
H       2.253700    6.116514    6.514595
